FoamFile
{
    version     2.0;
    format      ascii;
    class       dictionary;
    object      fvSolution;
}

solvers
{
    p
    {
        solver          GAMG;
        smoother        GaussSeidel;
        tolerance       1e-6;
        relTol          0.01;
        nPreSweeps      1;
        nPostSweeps     3;
        cacheAgglomeration on;
        agglomerator    faceAreaPair;
        nCellsInCoarsestLevel 200;
        mergeLevels     1;
        maxIter         100;
    }

    "(U|k|omega)"
    {
        solver          smoothSolver;
        smoother        symGaussSeidel;
        tolerance       1e-7;
        relTol          0.01;
        maxIter         100;
    }

    // potentialFoam uses pFinal and Phi
    pFinal
    {
        $p;
        relTol          0;
    }

    Phi
    {
        $p;
        relTol          0.001;
    }
}

SIMPLE
{
    nNonOrthogonalCorrectors 2;
    consistent      yes;
    pRefCell        0;
    pRefValue       0;

    residualControl
    {
        p               1e-4;
        U               1e-5;
        k               1e-5;
        omega           1e-5;
    }
}

relaxationFactors
{
    equations
    {
        U               0.2;
        k               0.3;
        omega           0.3;
    }
    fields
    {
        p               0.15;
    }
}
