FoamFile
{
    version     2.0;
    format      ascii;
    class       dictionary;
    object      fvSolution;
}

solvers
{
    p
    {
        solver          GAMG;
        smoother        GaussSeidel;
        tolerance       1e-6;
        relTol          0.1;
        nPreSweeps      0;
        nPostSweeps     2;
        cacheAgglomeration on;
        agglomerator    faceAreaPair;
        nCellsInCoarsestLevel 100;
        mergeLevels     1;
    }

    "(U|k|omega)"
    {
        solver          smoothSolver;
        smoother        symGaussSeidel;
        tolerance       1e-7;
        relTol          0.1;
    }
}

SIMPLE
{
    nNonOrthogonalCorrectors 1;
    consistent      yes;

    residualControl
    {
        p               1e-4;
        U               1e-5;
        k               1e-5;
        omega           1e-5;
    }
}

relaxationFactors
{
    equations
    {
        U               0.7;
        k               0.7;
        omega           0.7;
    }
    fields
    {
        p               0.3;
    }
}
